124

C 17.0180421683 -5.5825961058 -1.5480555567
C 16.0552049991 -4.5616829045 -1.0172555383
C 16.3204021859 -3.3723479925 -0.3540184512
C 15.1561870198 -2.6382034515 0.0160699591
C 13.9666280237 -3.2650788217 -0.3649700843
C 12.6067583725 -2.8214194359 -0.1714118993
S 11.2249017584 -3.8197848916 -0.6269543543
C 10.0496501468 -2.6048916611 -0.1171003437
C 8.6346506454 -2.8373229253 -0.2402846181
C 7.9814763314 -3.9841847141 -0.7102528396
C 6.5697069709 -3.8761036506 -0.7049159834
C 6.0969443826 -2.6484419211 -0.2337150932
C 4.7171136915 -2.1806865984 -0.1055847413
C 3.6503353340 -2.8698724184 -0.7441919260
C 2.3299146562 -2.4241639720 -0.6499304996
C 2.0098180815 -1.2623871407 0.0947012307
N 0.6698902878 -0.7936589139 0.1762041715
C 0.4003116161 0.5936415497 0.0277921298
C 1.1153797462 1.3725765440 -0.9161026479
C 0.8476794750 2.7347112370 -1.0696754970
C -0.1469376859 3.3905754195 -0.2950021999
C -0.4251621792 4.8157866863 -0.4686546239
C 0.3253275578 5.7871234137 -1.1363890474
C -0.2527908159 7.0797615242 -1.1077237374
C -1.4679413955 7.1362791379 -0.4126234152
C -2.3134676169 8.2774812407 -0.1794007396
S -1.8875110522 9.8777073225 -0.7960665214
C -3.3271075712 10.6348035109 -0.1070517368
C -3.5838641160 12.0432293277 -0.2825371415
C -2.8134249031 12.9873344948 -0.9655104127
C -3.3729674225 14.2967110211 -0.9472087073
C -4.5711249751 14.3835995535 -0.2529486656
C -5.4393356153 15.5865785735 -0.0238302284
S -5.0219350379 12.8167398715 0.3918566177
C -4.0843186558 9.6697498468 0.5618098247
C -3.5188805110 8.3577938812 0.5240451219
O -4.1130225151 7.2819589103 1.1236386163
C -5.1281636932 7.6646298862 2.0645288375
C -6.0218756017 8.7559788145 1.4812327297
O -5.2621918992 9.9421278477 1.2027308259
S -1.8872004931 5.5368998837 0.1992422303
C -0.8542105537 2.5972052328 0.6483808459
C -0.5894944369 1.2348279628 0.8115237321
C -0.3959962405 -1.7161203393 0.3446922984
C -1.6181587931 -1.5547179947 -0.3525828212
C -2.6610310413 -2.4683347560 -0.1830579865
C -2.5418155973 -3.5913883991 0.6792653273
C -3.6295048458 -4.5525998701 0.8508548526
C -3.6572002754 -5.7465198423 1.5775620795
C -4.8913359094 -6.4403665097 1.5152265406
C -5.8540762595 -5.7904996672 0.7312158647
C -7.2062440952 -6.1913241303 0.4402864701
S -8.2077154220 -5.3130574438 -0.7195730279
C -9.5980693148 -6.3710345375 -0.4750933611
C -10.8300766115 -6.1651245374 -1.1961968685
C -11.1248460831 -5.1913145715 -2.1535675682
C -12.4494907127 -5.2839132112 -2.6681995816
C -13.1919674881 -6.3198568628 -2.1198894978
C -14.6103224103 -6.7163632778 -2.4105147668
S -12.2371389256 -7.2031268975 -0.9443052388
C -9.2696409134 -7.3561823974 0.4602877951
C -7.9393783490 -7.2577395323 0.9747064594
O -7.4516586806 -8.1332933811 1.9084618170
C -8.4911609626 -8.8819525359 2.5568901704
C -9.4963844789 -9.4122416966 1.5393673426
O -10.1460158591 -8.3286379606 0.8591088432
S -5.1949956626 -4.2923171171 0.0836211839
C -1.3091178574 -3.7407619067 1.3717857487
C -0.2635709035 -2.8282835780 1.2137284959
C 3.0600208431 -0.5721055717 0.7465111726
C 4.3791789557 -1.0220763480 0.6442673151
S 7.4505784237 -1.6103845309 0.2079129551
C 10.7275164657 -1.4904101042 0.3870989412
C 12.1518945908 -1.6080521358 0.3567252027
O 12.9778762086 -0.6099233786 0.8019778605
C 12.2967123051 0.6463159274 0.9417535292
C 10.9525020920 0.4643418255 1.6401878809
O 10.0883360512 -0.3794405117 0.8647813331
S 14.3237513967 -4.7803661232 -1.1945755024
H 16.9100867322 -5.7314505600 -2.6444428136
H 18.0580284641 -5.2525364790 -1.3536615603
H 16.8834532312 -6.5768465809 -1.0690065723
H 17.3462727287 -3.0376938305 -0.1373214918
H 15.1642319588 -1.6782841693 0.5477620816
H 8.5254913244 -4.8808327596 -1.0425160890
H 5.9033739141 -4.6904324873 -1.0232139198
H 3.8670798964 -3.7547887889 -1.3619540265
H 1.5290544640 -2.9658717657 -1.1757779231
H 1.8790707314 0.8909842851 -1.5454626178
H 1.4019755473 3.2984213050 -1.8359419916
H 1.2879117235 5.5692564762 -1.6204886867
H 0.2032140726 7.9649277862 -1.5757191683
H -1.8676274541 12.7301971434 -1.4653844933
H -2.9063784214 15.1668648759 -1.4332160671
H -6.4579201073 15.4570608993 -0.4502293892
H -4.9841389025 16.4758121044 -0.5039437394
H -5.5652663004 15.8136196829 1.0572702073
H -5.7133343482 6.7499622113 2.2854338806
H -4.6528164025 8.0237795002 3.0066497087
H -6.8109879145 9.0498988017 2.2015153655
H -6.5062763450 8.3902061098 0.5461979155
H -1.6153665563 3.0700667916 1.2904095460
H -1.1477444703 0.6543877818 1.5617686834
H -1.7417241988 -0.7058937860 -1.0416775193
H -3.5918327988 -2.3185178086 -0.7547779501
H -2.7883971455 -6.1206116548 2.1376244517
H -5.0949444499 -7.3968505759 2.0134487840
H -10.3939503049 -4.4335818720 -2.4734076409
H -12.8569524362 -4.6035366352 -3.4310724197
H -14.6880303380 -7.7634414515 -2.7758580830
H -15.0331020402 -6.0544736703 -3.1924316655
H -15.2606777078 -6.6358483817 -1.5121243703
H -7.9920194433 -9.7147032353 3.0911958104
H -9.0106855350 -8.2367287174 3.3029335127
H -10.2948870505 -9.9956641494 2.0392421654
H -8.9811927039 -10.0692275758 0.8003462787
H -1.1714468805 -4.5826926513 2.0673136937
H 0.6728562822 -2.9665180066 1.7754181514
H 2.8287261589 0.3229089356 1.3437631441
H 5.1710612209 -0.4736846855 1.1805338628
H 12.9640760549 1.3019007295 1.5357482132
H 12.1443260288 1.1052599802 -0.0628460962
H 10.4295255657 1.4348518104 1.7507422143
H 11.1042606530 0.0203373800 2.6514883005
