76

C -5.0706030500 2.6110317895 0.7006234722
C -5.3865316042 3.9290462166 0.4911246908
S -4.3791191026 5.1450515668 -0.3316237249
C -5.4369204846 6.5324627742 -0.0290835826
C -5.1216225319 7.8445798784 -0.4261336576
C -6.0283472708 8.8836479177 -0.1531923399
C -7.2388051109 8.6155273566 0.5121745802
C -7.5584149459 7.3067372313 0.9128489323
C -6.6552791696 6.2613832457 0.6412694553
S -6.9457259164 4.5762668488 1.0767275808
C -3.8992296750 1.8340035571 0.3156393712
C -2.8615448386 2.2826381827 -0.5485972162
C -1.7650162104 1.4733753927 -0.8607835588
C -1.6398066048 0.1723232570 -0.3154764873
N -0.5170828897 -0.6415844253 -0.6226993604
C -0.6851817076 -2.0369130810 -0.8325463874
C 0.2433020247 -2.9682681319 -0.3087157001
C 0.0772900398 -4.3420573821 -0.5116562968
C -1.0318376120 -4.8612633727 -1.2362614937
C -1.2961114956 -6.2739696995 -1.4780488692
C -0.7042020475 -7.4016229626 -0.9695275966
S -1.2554091026 -9.0150098492 -1.5032601611
C -0.2297741284 -9.9602059570 -0.4229799561
C -0.2534350014 -11.3663132788 -0.3558829318
C 0.6118848957 -12.0293166264 0.5311567496
C 1.4943878636 -11.2976674581 1.3470578625
C 1.5224453873 -9.8933371415 1.2853992277
C 0.6590989189 -9.2242817963 0.3989669401
S 0.6095369625 -7.4619305617 0.2309681614
C -1.9486230769 -3.9072779762 -1.7645920753
C -1.7848277862 -2.5343334475 -1.5746131075
C 0.7763538582 -0.0602555627 -0.7134553644
C 1.1942181145 0.9315293361 0.2064406459
C 2.4600346223 1.5170528589 0.1097521623
C 3.3855422630 1.1358571975 -0.9020428561
C 4.7207054387 1.6918291948 -1.0810599103
C 5.4155554000 2.6274918076 -0.3575479721
S 7.0571336477 3.1141833180 -0.8709447229
C 7.3595598824 4.2645936991 0.4319621724
C 8.5527462277 5.0000603146 0.5665322034
C 8.6959901933 5.8910755852 1.6443103617
C 7.6595064036 6.0502744552 2.5823796250
C 6.4650603143 5.3205237014 2.4528072183
C 6.3157317276 4.4284052479 1.3755817423
S 4.8573350850 3.4604614582 1.1128145920
C 2.9495813898 0.1297395629 -1.8119628670
C 1.6828640909 -0.4512543521 -1.7296259964
C -2.6673096968 -0.2942181549 0.5417436592
C -3.7666332890 0.5143911221 0.8355830631
H -5.8266138984 2.0431689520 1.2710480476
H -4.1724218568 8.0513843739 -0.9445172872
H -5.7829037867 9.9116215779 -0.4617418392
H -7.9442602518 9.4334479601 0.7257769397
H -8.5037147596 7.0974114913 1.4371447555
H -2.9198811043 3.2728928862 -1.0242062844
H -0.9904859445 1.8478105824 -1.5473694215
H 1.1076835051 -2.6025145666 0.2662995934
H 0.8398096893 -5.0183685937 -0.0971087001
H -2.1275462209 -6.4685346387 -2.1783523361
H -0.9463588309 -11.9375092832 -0.9931009747
H 0.5930701560 -13.1288466054 0.5846182724
H 2.1688045110 -11.8219285280 2.0416766324
H 2.2111355608 -9.3191847925 1.9245982744
H -2.8120200812 -4.2660457038 -2.3489999354
H -2.5117209074 -1.8285127299 -2.0050781740
H 0.5097938212 1.2472272493 1.0086886004
H 2.7257538249 2.2836572799 0.8521929779
H 5.2664876491 1.2889490585 -1.9523063488
H 9.3642564119 4.8747044895 -0.1668660942
H 9.6292900569 6.4656671805 1.7498940441
H 7.7787968106 6.7484072158 3.4252714846
H 5.6519255916 5.4431240133 3.1850136585
H 3.6313525739 -0.1895430464 -2.6177401551
H 1.3795483778 -1.2129904907 -2.4641672579
H -2.5926103947 -1.3007787344 0.9805004535
H -4.5486903018 0.1287668109 1.5104692921
